14

F      0.475011    2.488592    0.551853
H     -0.380838    2.331110    0.143321
F      2.456922    1.272954   -0.237715
H      1.697823    1.779460    0.063549
F      2.531262   -1.136071    0.223574
H      2.535376   -0.190329    0.050012
F     -2.854015   -0.087471   -0.025176
H     -2.359721   -0.884160    0.184380
F     -1.547146   -2.087712    0.544693
H     -0.702013   -2.267365    0.123601
F      0.618832   -2.463874   -0.543611
H      1.389536   -1.968050   -0.251336
F     -1.683310    2.013466   -0.513048
H     -2.158171    1.200381   -0.318655
