24

C      0.000000    0.000000    0.000000
O      1.079120   -0.064180   -0.420700
O     -1.079120    0.064180    0.420700
C      4.107090    0.000000    0.000000
O      4.335780   -0.242630   -1.111050
O      3.878400    0.242630    1.111050
C      1.857880   -2.932670    0.000000
O      0.734800   -3.106120   -0.232870
O      2.980950   -2.759220    0.232870
C      2.179310   -0.720410   -3.098000
O      2.178940    0.413870   -3.340920
O      2.179680   -1.854690   -2.855070
C      2.456670    2.673940    2.165390
O      3.420860    3.183880    2.560260
O      1.492490    2.164000    1.770530
C      1.799910   -0.541960    3.180630
O      2.336310    0.155300    3.936740
O      1.263510   -1.239220    2.424520
C      1.749460    2.656760   -1.306680
O      0.644770    2.708420   -1.656800
O      2.854160    2.605100   -0.956560
C     -0.933280   -2.586660   -2.678460
O     -1.054880   -3.724740   -2.867080
O     -0.811690   -1.448570   -2.489840