18

O     -1.221925   -1.905312   -0.218311
H     -1.949708   -2.521525   -0.367897
H     -1.629396   -1.008955   -0.225178
O      1.046377   -1.132950    1.456581
H      1.428980   -1.137573    0.552672
H      0.224073   -1.631100    1.308146
O      0.260344    1.428665    1.498014
H      0.591371    0.496527    1.604573
H      0.478750    1.884477    2.320025
O      1.362524   -1.044909   -1.334614
H      0.487344   -1.470045   -1.313624
H      1.157919   -0.106137   -1.496225
O      0.583419    1.770289   -1.249511
H      1.081640    2.509156   -1.621379
H      0.657726    1.862767   -0.277565
O     -1.976064    0.746408   -0.171542
H     -1.512117    1.159478   -0.917834
H     -1.455437    1.064991    0.588802
